@<TRIPOS>MOLECULE
*****
 71 70 0 0 0
SMALL
GASTEIGER

@<TRIPOS>ATOM
      1 C           1.3221   -0.9526    0.1130 C.2     1  UNL1       -0.0953
      2 C           2.5983   -0.5633    0.2387 C.2     1  UNL1       -0.0276
      3 C           3.1041    0.4744    1.1803 C.2     1  UNL1        0.1129
      4 C           2.2937    1.1350    2.0363 C.2     1  UNL1       -0.0568
      5 O           4.4446    0.7207    1.1315 O.2     1  UNL1       -0.4917
      6 C           5.1571    1.5911    1.9381 C.3     1  UNL1        0.1035
      7 C           6.6703    1.5789    1.5854 C.3     1  UNL1        0.0959
      8 C           7.2342    0.1350    1.6923 C.3     1  UNL1        0.1068
      9 C           6.8975    2.1189    0.1458 C.3     1  UNL1        0.0627
     10 C           7.4035    2.5088    2.5900 C.3     1  UNL1        0.1068
     11 O           8.7631    2.5310    2.3409 O.3     1  UNL1       -0.4607
     12 C           9.6564    3.2556    3.0594 C.2     1  UNL1        0.3314
     13 O           9.2867    3.9508    3.9968 O.2     1  UNL1       -0.2456
     14 C          11.0853    3.1895    2.6895 C.2     1  UNL1        0.0154
     15 C          12.0327    3.8700    3.3434 C.2     1  UNL1       -0.0919
     16 O           6.2295    1.3100   -0.8022 O.3     1  UNL1       -0.3780
     17 C           6.7803    1.5089   -2.0885 C.3     1  UNL1        0.0617
     18 C           5.9435    0.7639   -3.1643 C.3     1  UNL1        0.0851
     19 C           5.8369   -0.7436   -2.8066 C.3     1  UNL1        0.1057
     20 C           4.5205    1.3819   -3.2660 C.3     1  UNL1        0.0582
     21 O           3.8045    1.2543   -2.0650 O.3     1  UNL1       -0.3942
     22 C           6.6556    0.9322   -4.5334 C.3     1  UNL1        0.1057
     23 O           5.9599    0.2794   -5.5339 O.3     1  UNL1       -0.4607
     24 C           6.3443    0.2523   -6.8343 C.2     1  UNL1        0.3314
     25 O           7.3627    0.8272   -7.1965 O.2     1  UNL1       -0.2456
     26 C           5.5107   -0.4849   -7.8061 C.2     1  UNL1        0.0154
     27 C           5.8153   -0.5633   -9.1059 C.2     1  UNL1       -0.0919
     28 O           7.0921   -1.3151   -2.7174 O.3     1  UNL1       -0.4607
     29 C           7.3146   -2.6151   -2.4017 C.2     1  UNL1        0.3314
     30 O           6.3791   -3.3724   -2.1784 O.2     1  UNL1       -0.2456
     31 C           8.7085   -3.0988   -2.3274 C.2     1  UNL1        0.0154
     32 C           9.0188   -4.3625   -2.0193 C.2     1  UNL1       -0.0919
     33 O           7.0617   -0.3655    2.9688 O.3     1  UNL1       -0.4607
     34 C           7.4536   -1.6044    3.3576 C.2     1  UNL1        0.3314
     35 O           7.9980   -2.3640    2.5666 O.2     1  UNL1       -0.2456
     36 C           7.2100   -2.0206    4.7540 C.2     1  UNL1        0.0154
     37 C           7.5628   -3.2230    5.2210 C.2     1  UNL1       -0.0919
     38 H           1.0694   -1.7215   -0.6101 H       1  UNL1        0.0536
     39 H           0.5144   -0.5371    0.7006 H       1  UNL1        0.0536
     40 H           3.3299   -1.0462   -0.4015 H       1  UNL1        0.0648
     41 H           1.2290    0.9535    2.0915 H       1  UNL1        0.0571
     42 H           2.6760    1.8870    2.7167 H       1  UNL1        0.0571
     43 H           5.0232    1.2799    2.9982 H       1  UNL1        0.0705
     44 H           4.7577    2.6233    1.8218 H       1  UNL1        0.0705
     45 H           8.3182    0.1320    1.4401 H       1  UNL1        0.0706
     46 H           6.7161   -0.5314    0.9671 H       1  UNL1        0.0706
     47 H           7.9982    2.1353   -0.0405 H       1  UNL1        0.0569
     48 H           6.5087    3.1595    0.0739 H       1  UNL1        0.0569
     49 H           7.2314    2.1537    3.6309 H       1  UNL1        0.0706
     50 H           6.9983    3.5426    2.5085 H       1  UNL1        0.0706
     51 H          11.3754    2.5617    1.8521 H       1  UNL1        0.0683
     52 H          11.7920    4.5103    4.1865 H       1  UNL1        0.0537
     53 H          13.0692    3.7877    3.0325 H       1  UNL1        0.0537
     54 H           7.8190    1.1051   -2.1046 H       1  UNL1        0.0568
     55 H           6.8074    2.5937   -2.3479 H       1  UNL1        0.0568
     56 H           5.2416   -1.2781   -3.5801 H       1  UNL1        0.0706
     57 H           5.3156   -0.8657   -1.8324 H       1  UNL1        0.0706
     58 H           3.9339    0.8741   -4.0613 H       1  UNL1        0.0565
     59 H           4.5853    2.4537   -3.5713 H       1  UNL1        0.0565
     60 H           3.8503    2.1291   -1.5978 H       1  UNL1        0.2094
     61 H           7.6874    0.5182   -4.4787 H       1  UNL1        0.0706
     62 H           6.7328    2.0138   -4.7861 H       1  UNL1        0.0706
     63 H           4.6146   -0.9827   -7.4476 H       1  UNL1        0.0683
     64 H           6.7003   -0.0826   -9.5113 H       1  UNL1        0.0537
     65 H           5.1700   -1.1176   -9.7797 H       1  UNL1        0.0537
     66 H           9.5120   -2.3972   -2.5310 H       1  UNL1        0.0683
     67 H           8.2507   -5.1000   -1.8074 H       1  UNL1        0.0537
     68 H          10.0590   -4.6687   -1.9772 H       1  UNL1        0.0537
     69 H           6.7244   -1.3198    5.4265 H       1  UNL1        0.0683
     70 H           8.0505   -3.9573    4.5872 H       1  UNL1        0.0537
     71 H           7.3617   -3.4812    6.2557 H       1  UNL1        0.0537
@<TRIPOS>BOND
     1     1     2    2
     2     2     3    1
     3     3     4    2
     4     3     5    1
     5     5     6    1
     6     6     7    1
     7     7     8    1
     8     7     9    1
     9     7    10    1
    10    10    11    1
    11    11    12    1
    12    12    13    2
    13    12    14    1
    14    14    15    2
    15     9    16    1
    16    16    17    1
    17    17    18    1
    18    18    19    1
    19    18    20    1
    20    20    21    1
    21    18    22    1
    22    22    23    1
    23    23    24    1
    24    24    25    2
    25    24    26    1
    26    26    27    2
    27    19    28    1
    28    28    29    1
    29    29    30    2
    30    29    31    1
    31    31    32    2
    32     8    33    1
    33    33    34    1
    34    34    35    2
    35    34    36    1
    36    36    37    2
    37     1    38    1
    38     1    39    1
    39     2    40    1
    40     4    41    1
    41     4    42    1
    42     6    43    1
    43     6    44    1
    44     8    45    1
    45     8    46    1
    46     9    47    1
    47     9    48    1
    48    10    49    1
    49    10    50    1
    50    14    51    1
    51    15    52    1
    52    15    53    1
    53    17    54    1
    54    17    55    1
    55    19    56    1
    56    19    57    1
    57    20    58    1
    58    20    59    1
    59    21    60    1
    60    22    61    1
    61    22    62    1
    62    26    63    1
    63    27    64    1
    64    27    65    1
    65    31    66    1
    66    32    67    1
    67    32    68    1
    68    36    69    1
    69    37    70    1
    70    37    71    1
