@<TRIPOS>MOLECULE
*****
 71 70 0 0 0
SMALL
GASTEIGER

@<TRIPOS>ATOM
      1 C           0.9485   -0.0498    0.1253 C.2     1  UNL1       -0.0953
      2 C           2.2298   -0.0918    0.5146 C.2     1  UNL1       -0.0276
      3 C           2.9542    0.9101    1.2759 C.2     1  UNL1        0.1129
      4 C           2.3382    1.8052    2.0665 C.2     1  UNL1       -0.0568
      5 O           4.3224    0.7900    1.1070 O.2     1  UNL1       -0.4917
      6 C           5.1632    1.6829    1.8395 C.3     1  UNL1        0.1035
      7 C           6.6728    1.4397    1.5750 C.3     1  UNL1        0.0959
      8 C           7.0393   -0.0398    1.8235 C.3     1  UNL1        0.1068
      9 C           7.0608    1.8282    0.1270 C.3     1  UNL1        0.0627
     10 C           7.4462    2.3603    2.5537 C.3     1  UNL1        0.1068
     11 O           8.8669    2.2169    2.3853 O.3     1  UNL1       -0.4607
     12 C           9.5993    3.0003    3.2206 C.2     1  UNL1        0.3314
     13 O           9.1595    3.7854    4.0432 O.2     1  UNL1       -0.2456
     14 C          11.0305    2.7498    2.9548 C.2     1  UNL1        0.0154
     15 C          11.9794    3.4044    3.6367 C.2     1  UNL1       -0.0919
     16 O           6.3881    1.0256   -0.8436 O.3     1  UNL1       -0.3780
     17 C           6.7532    1.3760   -2.1852 C.3     1  UNL1        0.0617
     18 C           6.0429    0.4498   -3.1990 C.3     1  UNL1        0.0851
     19 C           6.4073   -1.0261   -2.9201 C.3     1  UNL1        0.1057
     20 C           4.5142    0.6133   -3.0848 C.3     1  UNL1        0.0582
     21 O           4.0115    0.0957   -1.8691 O.3     1  UNL1       -0.3942
     22 C           6.4719    0.8553   -4.6253 C.3     1  UNL1        0.1057
     23 O           5.7971    0.0130   -5.5751 O.3     1  UNL1       -0.4607
     24 C           5.9754    0.3491   -6.8738 C.2     1  UNL1        0.3314
     25 O           6.6735    1.2536   -7.2964 O.2     1  UNL1       -0.2456
     26 C           5.1620   -0.5739   -7.6923 C.2     1  UNL1        0.0154
     27 C           5.1837   -0.5090   -9.0291 C.2     1  UNL1       -0.0919
     28 O           7.8230   -1.2211   -3.0756 O.3     1  UNL1       -0.4607
     29 C           8.2175   -2.5042   -2.8742 C.2     1  UNL1        0.3314
     30 O           7.5022   -3.4553   -2.6099 O.2     1  UNL1       -0.2456
     31 C           9.6843   -2.5608   -3.0411 C.2     1  UNL1        0.0154
     32 C          10.3430   -3.7129   -2.8632 C.2     1  UNL1       -0.0919
     33 O           6.7218   -0.4012    3.1802 O.3     1  UNL1       -0.4607
     34 C           7.0863   -1.6645    3.5180 C.2     1  UNL1        0.3314
     35 O           7.6793   -2.4632    2.8129 O.2     1  UNL1       -0.2456
     36 C           6.6471   -1.9139    4.9073 C.2     1  UNL1        0.0154
     37 C           6.8286   -3.1115    5.4776 C.2     1  UNL1       -0.0919
     38 H           0.5444   -0.8491   -0.4888 H       1  UNL1        0.0536
     39 H           0.2815    0.7676    0.3704 H       1  UNL1        0.0536
     40 H           2.8279   -0.9415    0.1835 H       1  UNL1        0.0648
     41 H           1.2579    1.8286    2.1602 H       1  UNL1        0.0571
     42 H           2.8682    2.5462    2.6489 H       1  UNL1        0.0571
     43 H           4.9615    1.5558    2.9113 H       1  UNL1        0.0705
     44 H           4.9186    2.7154    1.5583 H       1  UNL1        0.0705
     45 H           8.1129   -0.1951    1.6555 H       1  UNL1        0.0706
     46 H           6.4863   -0.7022    1.1469 H       1  UNL1        0.0706
     47 H           8.1420    1.7106   -0.0180 H       1  UNL1        0.0569
     48 H           6.8097    2.8806   -0.0540 H       1  UNL1        0.0569
     49 H           7.1890    2.1176    3.5938 H       1  UNL1        0.0706
     50 H           7.1746    3.4075    2.3675 H       1  UNL1        0.0706
     51 H          11.2819    2.0218    2.1938 H       1  UNL1        0.0683
     52 H          11.7307    4.1341    4.4034 H       1  UNL1        0.0537
     53 H          13.0310    3.2211    3.4423 H       1  UNL1        0.0537
     54 H           7.8421    1.3064   -2.2952 H       1  UNL1        0.0568
     55 H           6.4611    2.4190   -2.3615 H       1  UNL1        0.0568
     56 H           5.8759   -1.6866   -3.6171 H       1  UNL1        0.0706
     57 H           6.1294   -1.3134   -1.8986 H       1  UNL1        0.0706
     58 H           3.9931    0.0775   -3.8848 H       1  UNL1        0.0565
     59 H           4.2223    1.6670   -3.1599 H       1  UNL1        0.0565
     60 H           4.5611    0.4435   -1.1332 H       1  UNL1        0.2094
     61 H           7.5548    0.7470   -4.7590 H       1  UNL1        0.0706
     62 H           6.1994    1.9018   -4.8150 H       1  UNL1        0.0706
     63 H           4.5487   -1.2992   -7.1705 H       1  UNL1        0.0683
     64 H           5.7997    0.2167   -9.5536 H       1  UNL1        0.0537
     65 H           4.5832   -1.1862   -9.6272 H       1  UNL1        0.0537
     66 H          10.1983   -1.6470   -3.3097 H       1  UNL1        0.0683
     67 H           9.8212   -4.6272   -2.5898 H       1  UNL1        0.0537
     68 H          11.4189   -3.7654   -2.9846 H       1  UNL1        0.0537
     69 H           6.1742   -1.0976    5.4411 H       1  UNL1        0.0683
     70 H           7.2973   -3.9322    4.9393 H       1  UNL1        0.0537
     71 H           6.5061   -3.2990    6.4960 H       1  UNL1        0.0537
@<TRIPOS>BOND
     1     1     2    2
     2     2     3    1
     3     3     4    2
     4     3     5    1
     5     5     6    1
     6     6     7    1
     7     7     8    1
     8     7     9    1
     9     7    10    1
    10    10    11    1
    11    11    12    1
    12    12    13    2
    13    12    14    1
    14    14    15    2
    15     9    16    1
    16    16    17    1
    17    17    18    1
    18    18    19    1
    19    18    20    1
    20    20    21    1
    21    18    22    1
    22    22    23    1
    23    23    24    1
    24    24    25    2
    25    24    26    1
    26    26    27    2
    27    19    28    1
    28    28    29    1
    29    29    30    2
    30    29    31    1
    31    31    32    2
    32     8    33    1
    33    33    34    1
    34    34    35    2
    35    34    36    1
    36    36    37    2
    37     1    38    1
    38     1    39    1
    39     2    40    1
    40     4    41    1
    41     4    42    1
    42     6    43    1
    43     6    44    1
    44     8    45    1
    45     8    46    1
    46     9    47    1
    47     9    48    1
    48    10    49    1
    49    10    50    1
    50    14    51    1
    51    15    52    1
    52    15    53    1
    53    17    54    1
    54    17    55    1
    55    19    56    1
    56    19    57    1
    57    20    58    1
    58    20    59    1
    59    21    60    1
    60    22    61    1
    61    22    62    1
    62    26    63    1
    63    27    64    1
    64    27    65    1
    65    31    66    1
    66    32    67    1
    67    32    68    1
    68    36    69    1
    69    37    70    1
    70    37    71    1
