@<TRIPOS>MOLECULE
*****
 71 70 0 0 0
SMALL
GASTEIGER

@<TRIPOS>ATOM
      1 C           0.9574   -0.0428    0.1758 C.2     1  UNL1       -0.0953
      2 C           2.2158   -0.1079    0.6297 C.2     1  UNL1       -0.0276
      3 C           2.9369    0.9351    1.3324 C.2     1  UNL1        0.1129
      4 C           2.3255    1.8116    2.1467 C.2     1  UNL1       -0.0568
      5 O           4.2953    0.8566    1.0986 O.2     1  UNL1       -0.4917
      6 C           5.1471    1.7280    1.8402 C.3     1  UNL1        0.1035
      7 C           6.6487    1.4629    1.5621 C.3     1  UNL1        0.0959
      8 C           6.9932   -0.0252    1.7930 C.3     1  UNL1        0.1068
      9 C           7.0350    1.8500    0.1152 C.3     1  UNL1        0.0627
     10 C           7.4384    2.3618    2.5452 C.3     1  UNL1        0.1068
     11 O           8.8539    2.2028    2.3720 O.3     1  UNL1       -0.4607
     12 C           9.5919    2.9825    3.2049 C.2     1  UNL1        0.3314
     13 O           9.1589    3.7755    4.0241 O.2     1  UNL1       -0.2456
     14 C          11.0210    2.7187    2.9424 C.2     1  UNL1        0.0154
     15 C          11.9713    3.3787    3.6168 C.2     1  UNL1       -0.0919
     16 O           6.3550    1.0460   -0.8493 O.3     1  UNL1       -0.3780
     17 C           6.7589    1.3515   -2.1884 C.3     1  UNL1        0.0617
     18 C           6.0416    0.4275   -3.1989 C.3     1  UNL1        0.0851
     19 C           6.4074   -1.0498   -2.9248 C.3     1  UNL1        0.1057
     20 C           4.5124    0.5955   -3.0810 C.3     1  UNL1        0.0582
     21 O           3.9981    0.0459   -1.8811 O.3     1  UNL1       -0.3942
     22 C           6.4798    0.8399   -4.6225 C.3     1  UNL1        0.1057
     23 O           5.8209    0.0045   -5.5878 O.3     1  UNL1       -0.4607
     24 C           6.0183    0.3519   -6.8815 C.2     1  UNL1        0.3314
     25 O           6.7097    1.2696   -7.2894 O.2     1  UNL1       -0.2456
     26 C           5.2248   -0.5738   -7.7171 C.2     1  UNL1        0.0154
     27 C           5.2267   -0.4763   -9.0521 C.2     1  UNL1       -0.0919
     28 O           7.8247   -1.2422   -3.0796 O.3     1  UNL1       -0.4607
     29 C           8.2250   -2.5278   -2.9065 C.2     1  UNL1        0.3314
     30 O           7.5134   -3.4900   -2.6754 O.2     1  UNL1       -0.2456
     31 C           9.6953   -2.5685   -3.0516 C.2     1  UNL1        0.0154
     32 C          10.3669   -3.7129   -2.8725 C.2     1  UNL1       -0.0919
     33 O           6.6864   -0.3930    3.1493 O.3     1  UNL1       -0.4607
     34 C           7.0791   -1.6464    3.4900 C.2     1  UNL1        0.3314
     35 O           7.6918   -2.4343    2.7901 O.2     1  UNL1       -0.2456
     36 C           6.6382   -1.8982    4.8785 C.2     1  UNL1        0.0154
     37 C           6.8425   -3.0875    5.4589 C.2     1  UNL1       -0.0919
     38 H           0.5371   -0.8776   -0.3765 H       1  UNL1        0.0536
     39 H           0.3307    0.8313    0.3083 H       1  UNL1        0.0536
     40 H           2.7937   -1.0061    0.4124 H       1  UNL1        0.0648
     41 H           1.2516    1.7817    2.3011 H       1  UNL1        0.0571
     42 H           2.8523    2.5849    2.6893 H       1  UNL1        0.0571
     43 H           4.9524    1.5871    2.9117 H       1  UNL1        0.0705
     44 H           4.9120    2.7678    1.5778 H       1  UNL1        0.0705
     45 H           8.0609   -0.1971    1.6049 H       1  UNL1        0.0706
     46 H           6.4182   -0.6727    1.1202 H       1  UNL1        0.0706
     47 H           8.1152    1.7245   -0.0308 H       1  UNL1        0.0569
     48 H           6.7906    2.9035   -0.0692 H       1  UNL1        0.0569
     49 H           7.1797    2.1149    3.5830 H       1  UNL1        0.0706
     50 H           7.1791    3.4143    2.3687 H       1  UNL1        0.0706
     51 H          11.2684    1.9775    2.1928 H       1  UNL1        0.0683
     52 H          11.7235    4.1210    4.3716 H       1  UNL1        0.0537
     53 H          13.0224    3.1875    3.4286 H       1  UNL1        0.0537
     54 H           7.8471    1.2420   -2.2724 H       1  UNL1        0.0568
     55 H           6.5093    2.4000   -2.3950 H       1  UNL1        0.0568
     56 H           5.8769   -1.7080   -3.6246 H       1  UNL1        0.0706
     57 H           6.1315   -1.3398   -1.9036 H       1  UNL1        0.0706
     58 H           3.9922    0.0879   -3.8997 H       1  UNL1        0.0565
     59 H           4.2271    1.6528   -3.1251 H       1  UNL1        0.0565
     60 H           4.4969    0.4334   -1.1294 H       1  UNL1        0.2094
     61 H           7.5646    0.7365   -4.7458 H       1  UNL1        0.0706
     62 H           6.2073    1.8871   -4.8082 H       1  UNL1        0.0706
     63 H           4.6384   -1.3296   -7.2075 H       1  UNL1        0.0683
     64 H           5.8120    0.2802   -9.5676 H       1  UNL1        0.0537
     65 H           4.6378   -1.1575   -9.6574 H       1  UNL1        0.0537
     66 H          10.2026   -1.6461   -3.3036 H       1  UNL1        0.0683
     67 H           9.8549   -4.6369   -2.6147 H       1  UNL1        0.0537
     68 H          11.4457   -3.7485   -2.9765 H       1  UNL1        0.0537
     69 H           6.1412   -1.0910    5.4019 H       1  UNL1        0.0683
     70 H           7.3346   -3.9008    4.9314 H       1  UNL1        0.0537
     71 H           6.5143   -3.2739    6.4758 H       1  UNL1        0.0537
@<TRIPOS>BOND
     1     1     2    2
     2     2     3    1
     3     3     4    2
     4     3     5    1
     5     5     6    1
     6     6     7    1
     7     7     8    1
     8     7     9    1
     9     7    10    1
    10    10    11    1
    11    11    12    1
    12    12    13    2
    13    12    14    1
    14    14    15    2
    15     9    16    1
    16    16    17    1
    17    17    18    1
    18    18    19    1
    19    18    20    1
    20    20    21    1
    21    18    22    1
    22    22    23    1
    23    23    24    1
    24    24    25    2
    25    24    26    1
    26    26    27    2
    27    19    28    1
    28    28    29    1
    29    29    30    2
    30    29    31    1
    31    31    32    2
    32     8    33    1
    33    33    34    1
    34    34    35    2
    35    34    36    1
    36    36    37    2
    37     1    38    1
    38     1    39    1
    39     2    40    1
    40     4    41    1
    41     4    42    1
    42     6    43    1
    43     6    44    1
    44     8    45    1
    45     8    46    1
    46     9    47    1
    47     9    48    1
    48    10    49    1
    49    10    50    1
    50    14    51    1
    51    15    52    1
    52    15    53    1
    53    17    54    1
    54    17    55    1
    55    19    56    1
    56    19    57    1
    57    20    58    1
    58    20    59    1
    59    21    60    1
    60    22    61    1
    61    22    62    1
    62    26    63    1
    63    27    64    1
    64    27    65    1
    65    31    66    1
    66    32    67    1
    67    32    68    1
    68    36    69    1
    69    37    70    1
    70    37    71    1
